Circuit: * C:\Users\mehmet aslan\Desktop\current_sensing_opamp\circuit.asc

Direct Newton iteration for .op point succeeded.

Date: Sun Nov 26 21:35:31 2017
Total elapsed time: 76.655 seconds.

tnom = 27
temp = 27
method = modified trap
totiter = 3000047
traniter = 3000034
tranpoints = 1500018
accept = 1500018
rejected = 0
matrix size = 15
fillins = 6
solver = Normal
Matrix Compiler1: 886 bytes object code size  0.4/0.2/[0.1]
Matrix Compiler2: off  [0.2]/0.3/0.2

